LAMMPS (14 Nov 2012)
# Test lammps input for temperature ramp, anneal, then relaxation (to 0K)

# basic system settings: particle type, units to use, periodic boundary types, timestep for MD simulation, thermodynamic output every N-timesteps
atom_style	atomic
units		metal
boundary	p p p
timestep	0.001
thermo		1000

# read in position file
read_data	data.test
  orthogonal box = (-6 -6 -6) to (5.97232 5.97232 5.97232)
  128 atoms

# choose potential type and the potential file name
# this section is quite different for different potential types
# for certain potential types, setting the atomic mass would also be needed
pair_style	tersoff
pair_coeff * * SiC.tersoff Si C
mass 1 28
mass 2 12

# creates the initial temperature distribution for MD simulation
# keep in mind that if the starting atomic positions has been minimized,
# then the temperature to be set here should be twice the temperature that you want
# since that energy would be split into PE and KE.
velocity	all create 1000.0 19237571 rot yes dist gaussian

# dump out system information into a file
# specific settings depends on what the GA needs
# below dumps out atom positions every 5000 timesteps
dump		dump1 all custom 1000 dump.test id element x y z
dump_modify dump1 element Si C
dump_modify	dump1 sort id

# NVT ensemble, first temperature hold, equilibrate
fix			hold1 all nvt temp 500.0 500.0 0.1
run			1000
Step Temp E_pair E_mol TotEng Press
0         1000   -619.25494            0   -602.83891   -310061.65
Loop time of 2.11155 on 1 procs for 1000 steps with 128 atoms

Pair  time (%) = 2.07769 (98.3963)
Neigh time (%) = 0.00302291 (0.14316)
Comm  time (%) = 0.015331 (0.726054)
Outpt time (%) = 0.000319004 (0.0151075)
Other time (%) = 0.0151908 (0.719415)

unfix		hold1

# ramp temperature up
fix			ramp1 all nvt temp 500.0 1000.0 0.1
run			2000
Step Temp E_pair E_mol TotEng Press
1000    518.63689   -657.18243            0   -648.66847   -262517.08
Loop time of 3.76981 on 1 procs for 2000 steps with 128 atoms

Pair  time (%) = 3.71148 (98.4526)
Neigh time (%) = 0.00178933 (0.0474648)
Comm  time (%) = 0.0280266 (0.743448)
Outpt time (%) = 0.000627041 (0.0166332)
Other time (%) = 0.0278914 (0.739862)

unfix		ramp1

# second temperature hold, annealing
fix			hold2 all nvt temp 1000.0 1000.0 0.1
run			1000
Step Temp E_pair E_mol TotEng Press
3000    1023.8321   -655.85146            0   -639.04419    -237458.7
Loop time of 1.80039 on 1 procs for 1000 steps with 128 atoms

Pair  time (%) = 1.76973 (98.2966)
Neigh time (%) = 0.00237679 (0.132015)
Comm  time (%) = 0.0140402 (0.779842)
Outpt time (%) = 0.00030899 (0.0171624)
Other time (%) = 0.0139418 (0.774373)

unfix		hold2

# conjugate gradient minimization
min_style	cg
minimize	1.0e-6 1.0e-6 10000 100000
Step Temp E_pair E_mol TotEng Press
4000    1010.4379   -664.96612            0   -648.37873   -188633.58
Loop time of 0.370831 on 1 procs for 42 steps with 128 atoms

Minimization stats:
  Stopping criterion = energy tolerance
  Energy initial, next-to-last, final =
  Force two-norm initial, final = 30.1101 0.534807
  Force max component initial, final = 7.29405 0.151203
  Final line search alpha, max atom move = 0.00110664 0.000167327
  Iterations, force evaluations = 42 207

Pair  time (%) = 0.365546 (98.5748)
Neigh time (%) = 0 (0)
Comm  time (%) = 0.00288916 (0.779103)
Outpt time (%) = 0 (0)
Other time (%) = 0.00239587 (0.646081)

print "All done"
All done
